Merge Classes  Instances  SetOfObjects
Reaction::
Command Line: 'Read /home/reaction/cvs/Reaction/data/mol/inputs/MoleculeClass.inp /home/reaction/cvs/Reaction/data/mol/inputs/Molecule.inp 0'
RxnAtomInformationClass::Read
The Atoms Read in:
 H He Li Be B C N O F Ne Na Mg Al Si P S Cl Ar K Ca Sc Ti V Cr Mn Fe Co Ni Cu Zn Ga Ge As Se Br Kr Rb Sr Y Zr Nb Mo Tc Ru Rh Pd Ag Cd In Sn Sb Te I Xe                                                                                                
Reaction::
Command Line: 'Read /home/reaction/cvs/Reaction/data/mol/inputs/MolDbaseClass.inp /home/reaction/cvs/Reaction/data/mol/inputs/MolDbase.inp 0'
Reaction::
Command Line: 'Read /home/reaction/cvs/Reaction/data/rxn/inputs/ReactionClass.inp /home/reaction/cvs/Reaction/data/rxn/inputs/Reaction.inp 0'
Reaction::
Command Line: 'Read /home/reaction/cvs/Reaction/data/mech/inputs/MechanismClass.inp /home/reaction/cvs/Reaction/data/mech/inputs/Mechanism.inp 0'
Reaction::
Command Line: 'Read /home/reaction/cvs/Reaction/data/mech/inputs/MechDbaseClass.inp /home/reaction/cvs/Reaction/data/mech/inputs/MechDbase.inp 0'
Reaction::
Command Line: 'Read /home/reaction/cvs/Reaction/data/mol/inputs/MoleculeChemkinClass.inp empty.inp 0'
ThermoProperty: 298.15, 8.31842
Reaction::
Command Line: 'Read RunClass.inp Run.inp 0'
Read SelectClass (SelectionTreeClass)
Read SubAlgorithms (SelectionTree)
====== After Reading SubAlgorithms: 'AlgorithmSummary'
====== After Reading AlgorithmSummary: 'BaseAlgorithmRun'
Reaction::
Command Line: 'SetAlgorithmClass BaseAlgorithmRun'
Algorithm Run set to : BaseAlgorithmRun
Reaction::
Command Line: 'Read DataClass.inp Data.inp 0'
Reaction::
Command Line: 'RunAlgorithm ReadChemkinAlg 0'
THERMO and CHEMKIN information in one file
Reaction Database used
Mechanism Database used
CHEMKIN file root name: 'Name(11): FileRoot  (17004)  [Encode: Object.String]  String: 'ChemkinFile'

CHEMKIN: ChemkinFile.ckm
Mechanism: ChemkinFile
Start Reading CHEMKIN file
Molecule: H2
Molecule: H
Molecule: O
Molecule: O2
Molecule: OH
Molecule: H2O
Molecule: HO2
Molecule: H2O2
Molecule: AR
---------------- Build Reaction Name ---------------------
'O'
'O'
'O+O'
---------------- Build Reaction Name ---------------------
'O2'
'O+O=O2'
--------- Reaction ------------
O+O=O2
Reaction Number: 1
Reaction type:   2001
Third Body:      M
Three Body Reaction
AR:0.83
H2:2.4
H2O:15.4
---------------- Build Reaction Name ---------------------
'O'
'H'
'O+H'
---------------- Build Reaction Name ---------------------
'OH'
'O+H=OH'
--------- Reaction ------------
O+H=OH
Reaction Number: 2
Reaction type:   2001
Third Body:      M
Three Body Reaction
AR:0.7
H2:2
H2O:6
Key Already in List:Reaction
---------------- Build Reaction Name ---------------------
'O'
'H2'
'O+H2'
---------------- Build Reaction Name ---------------------
'H'
'OH'
'O+H2=H+OH'
--------- Reaction ------------
O+H2=H+OH
Reaction Number: 3
Reaction type:   2000
Third Body:      <none>
Key Already in List:Reaction
---------------- Build Reaction Name ---------------------
'O'
'HO2'
'O+HO2'
---------------- Build Reaction Name ---------------------
'OH'
'O2'
'O+HO2=OH+O2'
--------- Reaction ------------
O+HO2=OH+O2
Reaction Number: 4
Reaction type:   2000
Third Body:      <none>
Key Already in List:Reaction
---------------- Build Reaction Name ---------------------
'O'
'H2O2'
'O+H2O2'
---------------- Build Reaction Name ---------------------
'OH'
'HO2'
'O+H2O2=OH+HO2'
--------- Reaction ------------
O+H2O2=OH+HO2
Reaction Number: 5
Reaction type:   2000
Third Body:      <none>
Key Already in List:Reaction
---------------- Build Reaction Name ---------------------
'H'
'O2'
'O2'
'H+O2+O2'
---------------- Build Reaction Name ---------------------
'HO2'
'O2'
'H+O2+O2=HO2+O2'
--------- Reaction ------------
H+O2+O2=HO2+O2
Reaction Number: 6
Reaction type:   2000
Third Body:      <none>
Key Already in List:Reaction
---------------- Build Reaction Name ---------------------
'H'
'O2'
'H2O'
'H+O2+H2O'
---------------- Build Reaction Name ---------------------
'HO2'
'H2O'
'H+O2+H2O=HO2+H2O'
--------- Reaction ------------
H+O2+H2O=HO2+H2O
Reaction Number: 7
Reaction type:   2000
Third Body:      <none>
Key Already in List:Reaction
---------------- Build Reaction Name ---------------------
'H'
'O2'
'AR'
'H+O2+AR'
---------------- Build Reaction Name ---------------------
'HO2'
'AR'
'H+O2+AR=HO2+AR'
--------- Reaction ------------
H+O2+AR=HO2+AR
Reaction Number: 8
Reaction type:   2000
Third Body:      <none>
Key Already in List:Reaction
---------------- Build Reaction Name ---------------------
'H'
'O2'
'H+O2'
---------------- Build Reaction Name ---------------------
'O'
'OH'
'H+O2=O+OH'
--------- Reaction ------------
H+O2=O+OH
Reaction Number: 9
Reaction type:   2000
Third Body:      <none>
Key Already in List:Reaction
---------------- Build Reaction Name ---------------------
'H'
'H'
'H+H'
---------------- Build Reaction Name ---------------------
'H2'
'H+H=H2'
--------- Reaction ------------
H+H=H2
Reaction Number: 10
Reaction type:   2001
Third Body:      M
Three Body Reaction
AR:0.63
H2:0
H2O:0
Key Already in List:Reaction
---------------- Build Reaction Name ---------------------
'H'
'H'
'H2'
'H+H+H2'
---------------- Build Reaction Name ---------------------
'H2'
'H2'
'H+H+H2=H2+H2'
--------- Reaction ------------
H+H+H2=H2+H2
Reaction Number: 11
Reaction type:   2000
Third Body:      <none>
Key Already in List:Reaction
---------------- Build Reaction Name ---------------------
'H'
'H'
'H2O'
'H+H+H2O'
---------------- Build Reaction Name ---------------------
'H2'
'H2O'
'H+H+H2O=H2+H2O'
--------- Reaction ------------
H+H+H2O=H2+H2O
Reaction Number: 12
Reaction type:   2000
Third Body:      <none>
Key Already in List:Reaction
---------------- Build Reaction Name ---------------------
'H'
'OH'
'H+OH'
---------------- Build Reaction Name ---------------------
'H2O'
'H+OH=H2O'
--------- Reaction ------------
H+OH=H2O
Reaction Number: 13
Reaction type:   2001
Third Body:      M
Three Body Reaction
AR:0.38
H2:0.73
H2O:3.65
Key Already in List:Reaction
---------------- Build Reaction Name ---------------------
'H'
'HO2'
'H+HO2'
---------------- Build Reaction Name ---------------------
'O'
'H2O'
'H+HO2=O+H2O'
--------- Reaction ------------
H+HO2=O+H2O
Reaction Number: 14
Reaction type:   2000
Third Body:      <none>
Key Already in List:Reaction
---------------- Build Reaction Name ---------------------
'H'
'HO2'
'H+HO2'
---------------- Build Reaction Name ---------------------
'O2'
'H2'
'H+HO2=O2+H2'
--------- Reaction ------------
H+HO2=O2+H2
Reaction Number: 15
Reaction type:   2000
Third Body:      <none>
Key Already in List:Reaction
---------------- Build Reaction Name ---------------------
'H'
'HO2'
'H+HO2'
---------------- Build Reaction Name ---------------------
'OH'
'OH'
'H+HO2=OH+OH'
--------- Reaction ------------
H+HO2=OH+OH
Reaction Number: 16
Reaction type:   2000
Third Body:      <none>
Key Already in List:Reaction
---------------- Build Reaction Name ---------------------
'H'
'H2O2'
'H+H2O2'
---------------- Build Reaction Name ---------------------
'HO2'
'H2'
'H+H2O2=HO2+H2'
--------- Reaction ------------
H+H2O2=HO2+H2
Reaction Number: 17
Reaction type:   2000
Third Body:      <none>
Key Already in List:Reaction
---------------- Build Reaction Name ---------------------
'H'
'H2O2'
'H+H2O2'
---------------- Build Reaction Name ---------------------
'OH'
'H2O'
'H+H2O2=OH+H2O'
--------- Reaction ------------
H+H2O2=OH+H2O
Reaction Number: 18
Reaction type:   2000
Third Body:      <none>
Key Already in List:Reaction
---------------- Build Reaction Name ---------------------
'OH'
'H2'
'OH+H2'
---------------- Build Reaction Name ---------------------
'H'
'H2O'
'OH+H2=H+H2O'
--------- Reaction ------------
OH+H2=H+H2O
Reaction Number: 19
Reaction type:   2000
Third Body:      <none>
Key Already in List:Reaction
---------------- Build Reaction Name ---------------------
'OH'
'OH'
'OH+OH'
---------------- Build Reaction Name ---------------------
'H2O2'
'OH+OH=H2O2'
--------- Reaction ------------
OH+OH=H2O2
Reaction Number: 20
Reaction type:   2002
Third Body:      M
Falloff
AR:0.7
H2:2
H2O:6
Fall off type: 1
0.7346   94   1756   5182   
Key Already in List:Reaction
---------------- Build Reaction Name ---------------------
'OH'
'OH'
'OH+OH'
---------------- Build Reaction Name ---------------------
'O'
'H2O'
'OH+OH=O+H2O'
--------- Reaction ------------
OH+OH=O+H2O
Reaction Number: 21
Reaction type:   2000
Third Body:      <none>
Key Already in List:Reaction
---------------- Build Reaction Name ---------------------
'OH'
'HO2'
'OH+HO2'
---------------- Build Reaction Name ---------------------
'O2'
'H2O'
'OH+HO2=O2+H2O'
--------- Reaction ------------
OH+HO2=O2+H2O
Reaction Number: 22
Reaction type:   2000
Third Body:      <none>
Key Already in List:Reaction
---------------- Build Reaction Name ---------------------
'OH'
'H2O2'
'OH+H2O2'
---------------- Build Reaction Name ---------------------
'HO2'
'H2O'
'OH+H2O2=HO2+H2O'
--------- Reaction ------------
OH+H2O2=HO2+H2O
Reaction Number: 23
Reaction type:   2000
Third Body:      <none>
Key Already in List:Reaction
---------------- Build Reaction Name ---------------------
'OH'
'H2O2'
'OH+H2O2'
---------------- Build Reaction Name ---------------------
'HO2'
'H2O'
'OH+H2O2=HO2+H2O'
--------- Reaction ------------
OH+H2O2=HO2+H2O
Reaction Number: 24
Reaction type:   2000
Third Body:      <none>
Key Already in List:OH+H2O2=HO2+H2O
Key Already in List:Reaction
---------------- Build Reaction Name ---------------------
'HO2'
'HO2'
'HO2+HO2'
---------------- Build Reaction Name ---------------------
'O2'
'H2O2'
'HO2+HO2=O2+H2O2'
--------- Reaction ------------
HO2+HO2=O2+H2O2
Reaction Number: 25
Reaction type:   2000
Third Body:      <none>
Key Already in List:Reaction
---------------- Build Reaction Name ---------------------
'HO2'
'HO2'
'HO2+HO2'
---------------- Build Reaction Name ---------------------
'O2'
'H2O2'
'HO2+HO2=O2+H2O2'
--------- Reaction ------------
HO2+HO2=O2+H2O2
Reaction Number: 26
Reaction type:   2000
Third Body:      <none>
Key Already in List:HO2+HO2=O2+H2O2
Key Already in List:Reaction
---------------- Build Reaction Name ---------------------
'OH'
'HO2'
'OH+HO2'
---------------- Build Reaction Name ---------------------
'O2'
'H2O'
'OH+HO2=O2+H2O'
--------- Reaction ------------
OH+HO2=O2+H2O
Reaction Number: 27
Reaction type:   2000
Third Body:      <none>
Key Already in List:OH+HO2=O2+H2O
Key Already in List:Reaction
Reaction::
Command Line: 'Print Instance H+H2O2=OH+H2O Reaction'

==============================================================
Instance: 'H+H2O2=OH+H2O' attribute: 'Reaction
[0,] 
Reaction::
Command Line: 'END'
